data_image0
_cell_length_a       2.86577
_cell_length_b       2.86577
_cell_length_c       14.1818
_cell_angle_alpha    90
_cell_angle_beta     90
_cell_angle_gamma    120

_symmetry_space_group_name_H-M    "P 1"
_symmetry_int_tables_number       1

loop_
  _symmetry_equiv_pos_as_xyz
  'x, y, z'

loop_
  _atom_site_label
  _atom_site_occupancy
  _atom_site_fract_x
  _atom_site_fract_y
  _atom_site_fract_z
  _atom_site_thermal_displace_type
  _atom_site_B_iso_or_equiv
  _atom_site_type_symbol
  Li1      0.5000 0.33334  0.66666  0.16665  Biso   1.000  Li
  Li1      0.5000 0.00000  1.00000  0.50002  Biso   1.000  Li
  Li1      0.5000 0.66667  0.33333  0.83334  Biso   1.000  Li
  Ni1      1.0000 0.99998  0.00001  1.00000  Biso   1.000  Ni
  Ni2      1.0000 0.66665  0.33335  0.33334  Biso   1.000  Ni
  Ni3      1.0000 0.33332  0.66667  0.66667  Biso   1.000  Ni
  O1       1.0000 0.99999  0.00001  0.25624  Biso   1.000  O
  O2       1.0000 0.66670  0.33330  0.07709  Biso   1.000  O
  O3       1.0000 0.66666  0.33334  0.58956  Biso   1.000  O
  O4       1.0000 0.33336  0.66664  0.41044  Biso   1.000  O
  O5       1.0000 0.33332  0.66668  0.92289  Biso   1.000  O
  O6       1.0000 0.00001  0.00001  0.74377  Biso   1.000  O
