data_image0
_cell_length_a       5.68708
_cell_length_b       5.68708
_cell_length_c       28.021
_cell_angle_alpha    90
_cell_angle_beta     90
_cell_angle_gamma    120

_symmetry_space_group_name_H-M    "P 1"
_symmetry_int_tables_number       1

loop_
  _symmetry_equiv_pos_as_xyz
  'x, y, z'

loop_
  _atom_site_label
  _atom_site_occupancy
  _atom_site_fract_x
  _atom_site_fract_y
  _atom_site_fract_z
  _atom_site_thermal_displace_type
  _atom_site_B_iso_or_equiv
  _atom_site_type_symbol
  Li1      1.0000 0.00000  0.00000  0.00000  Biso   1.000  Li
  Li2      1.0000 0.50000  0.50000  0.00000  Biso   1.000  Li
  Li3      1.0000 0.66668  0.33332  0.83332  Biso   1.000  Li
  Li4      1.0000 0.83332  0.16668  0.66668  Biso   1.000  Li
  Li5      1.0000 0.66668  0.33332  0.33332  Biso   1.000  Li
  Li6      1.0000 0.83332  0.16668  0.16668  Biso   1.000  Li
  Li7      1.0000 0.50000  0.50000  0.50000  Biso   1.000  Li
  Li8      1.0000 0.33332  0.66668  0.66668  Biso   1.000  Li
  Li9      1.0000 0.16668  0.83332  0.33332  Biso   1.000  Li
  Li10     1.0000 0.33332  0.66668  0.16668  Biso   1.000  Li
  Li11     1.0000 0.00000  0.00000  0.50000  Biso   1.000  Li
  Li12     1.0000 0.16668  0.83332  0.83332  Biso   1.000  Li
  Ni1      1.0000 0.50000  0.00000  0.25000  Biso   1.000  Ni
  Ni2      1.0000 0.83331  0.66669  0.91658  Biso   1.000  Ni
  Ni3      1.0000 0.50000  0.50000  0.75000  Biso   1.000  Ni
  Ni4      1.0000 0.66669  0.83331  0.58342  Biso   1.000  Ni
  Ni5      1.0000 0.83331  0.66669  0.41658  Biso   1.000  Ni
  Ni6      1.0000 0.50000  0.50000  0.25000  Biso   1.000  Ni
  Ni7      1.0000 0.66669  0.83331  0.08342  Biso   1.000  Ni
  Ni8      1.0000 0.50000  0.00000  0.75000  Biso   1.000  Ni
  Ni9      1.0000 0.66668  0.33332  0.58341  Biso   1.000  Ni
  Ni10     1.0000 0.83332  0.16668  0.41659  Biso   1.000  Ni
  Ni11     1.0000 0.66668  0.33332  0.08341  Biso   1.000  Ni
  Ni12     1.0000 0.83332  0.16668  0.91659  Biso   1.000  Ni
  Ni13     1.0000 0.00000  0.50000  0.75000  Biso   1.000  Ni
  Ni14     1.0000 0.33332  0.66668  0.91659  Biso   1.000  Ni
  Ni15     1.0000 0.16669  0.33331  0.08342  Biso   1.000  Ni
  Ni16     1.0000 0.33331  0.16669  0.41658  Biso   1.000  Ni
  Ni17     1.0000 0.16669  0.33331  0.58342  Biso   1.000  Ni
  Ni18     1.0000 0.00000  0.00000  0.75000  Biso   1.000  Ni
  Ni19     1.0000 0.00000  0.00000  0.25000  Biso   1.000  Ni
  Ni20     1.0000 0.16668  0.83332  0.08341  Biso   1.000  Ni
  Ni21     1.0000 0.00000  0.50000  0.25000  Biso   1.000  Ni
  Ni22     1.0000 0.33332  0.66668  0.41659  Biso   1.000  Ni
  Ni23     1.0000 0.16668  0.83332  0.58341  Biso   1.000  Ni
  Ni24     1.0000 0.33331  0.16669  0.91658  Biso   1.000  Ni
  O1       1.0000 0.50618  0.99382  0.11805  Biso   1.000  O
  O2       1.0000 0.81838  0.18162  0.78657  Biso   1.000  O
  O3       1.0000 0.68162  0.31838  0.21343  Biso   1.000  O
  O4       1.0000 0.81838  0.18162  0.28657  Biso   1.000  O
  O5       1.0000 0.49382  0.00618  0.38195  Biso   1.000  O
  O6       1.0000 0.65169  0.34831  0.45316  Biso   1.000  O
  O7       1.0000 0.84831  0.15169  0.54684  Biso   1.000  O
  O8       1.0000 0.50618  0.99382  0.61805  Biso   1.000  O
  O9       1.0000 0.68162  0.31838  0.71343  Biso   1.000  O
  O10      1.0000 0.49382  0.00618  0.88195  Biso   1.000  O
  O11      1.0000 0.51493  0.48507  0.38002  Biso   1.000  O
  O12      1.0000 0.82717  0.67283  0.04876  Biso   1.000  O
  O13      1.0000 0.48507  0.51493  0.11998  Biso   1.000  O
  O14      1.0000 0.66051  0.83949  0.21537  Biso   1.000  O
  O15      1.0000 0.83949  0.66051  0.28463  Biso   1.000  O
  O16      1.0000 0.67283  0.82717  0.45124  Biso   1.000  O
  O17      1.0000 0.82717  0.67283  0.54876  Biso   1.000  O
  O18      1.0000 0.48507  0.51493  0.61998  Biso   1.000  O
  O19      1.0000 0.66051  0.83949  0.71537  Biso   1.000  O
  O20      1.0000 0.83949  0.66051  0.78463  Biso   1.000  O
  O21      1.0000 0.84831  0.15169  0.04684  Biso   1.000  O
  O22      1.0000 0.65169  0.34831  0.95316  Biso   1.000  O
  O23      1.0000 0.15169  0.84831  0.95316  Biso   1.000  O
  O24      1.0000 0.17283  0.32717  0.45124  Biso   1.000  O
  O25      1.0000 0.31838  0.68162  0.78657  Biso   1.000  O
  O26      1.0000 0.32717  0.17283  0.04876  Biso   1.000  O
  O27      1.0000 0.98507  0.01493  0.11998  Biso   1.000  O
  O28      1.0000 0.16051  0.33949  0.21537  Biso   1.000  O
  O29      1.0000 0.33949  0.16051  0.28463  Biso   1.000  O
  O30      1.0000 0.01493  0.98507  0.38002  Biso   1.000  O
  O31      1.0000 0.51493  0.48507  0.88002  Biso   1.000  O
  O32      1.0000 0.32717  0.17283  0.54876  Biso   1.000  O
  O33      1.0000 0.98507  0.01493  0.61998  Biso   1.000  O
  O34      1.0000 0.16051  0.33949  0.71537  Biso   1.000  O
  O35      1.0000 0.33949  0.16051  0.78463  Biso   1.000  O
  O36      1.0000 0.01493  0.98507  0.88002  Biso   1.000  O
  O37      1.0000 0.17283  0.32717  0.95124  Biso   1.000  O
  O38      1.0000 0.34831  0.65169  0.04684  Biso   1.000  O
  O39      1.0000 0.00618  0.49382  0.11805  Biso   1.000  O
  O40      1.0000 0.18162  0.81838  0.21343  Biso   1.000  O
  O41      1.0000 0.31838  0.68162  0.28657  Biso   1.000  O
  O42      1.0000 0.99382  0.50618  0.38195  Biso   1.000  O
  O43      1.0000 0.15169  0.84831  0.45316  Biso   1.000  O
  O44      1.0000 0.34831  0.65169  0.54684  Biso   1.000  O
  O45      1.0000 0.00618  0.49382  0.61805  Biso   1.000  O
  O46      1.0000 0.18162  0.81838  0.71343  Biso   1.000  O
  O47      1.0000 0.99382  0.50618  0.88195  Biso   1.000  O
  O48      1.0000 0.67283  0.82717  0.95124  Biso   1.000  O
